4
step: 1  T=      186.596K  Ek=     0.096477  Ep=     1.415712  E_gap=    13.408907  Err=       0.0000000000000000  time_stamp= 1672955495.2387
 B         0.00108         0.00139        -0.00068         0.00249         0.00342        -0.00170        -1.54758        -2.17107         0.95841         0.29248
H         1.19430        -0.00995         0.00233        -0.01843        -0.02427         0.00608        -2.20468         0.07288         0.32046        -0.09482
H        -0.60696         1.02419         0.00216        -0.01464        -0.01746         0.00607         1.49268        -1.64950        -0.09450        -0.09638
H        -0.59888        -1.02911         0.00282         0.00639         0.00502         0.00606         1.74687         1.32264        -0.02059        -0.10128
4
step: 2  T=      247.548K  Ek=     0.127992  Ep=     1.381929  E_gap=    13.393067  Err=       0.0000000000000000  time_stamp= 1672955495.5923
 B         0.00199         0.00274        -0.00136         0.00237         0.00329        -0.00176        -1.47426        -2.26653        -1.70010         0.29340
H         1.18527        -0.01947         0.00494        -0.02653        -0.02392         0.00631        -2.21228        -0.09745        -0.06551        -0.09378
H        -0.61164         1.01608         0.00445        -0.01006        -0.02234         0.00631         0.59201        -1.27717         0.55117        -0.09492
H        -0.59495        -1.02595         0.00516         0.01121         0.01095         0.00628         0.63998         1.35882        -0.49287        -0.10471
4
step: 3  T=      334.875K  Ek=     0.173144  Ep=     1.338521  E_gap=    13.386003  Err=       0.0000000000000000  time_stamp= 1672955495.9387
 B         0.00297         0.00402        -0.00209         0.00232         0.00300        -0.00183        -1.28362        -0.57622        -0.47942         0.29476
H         1.17310        -0.02898         0.00751        -0.03426        -0.02282         0.00657        -2.04632         0.29920        -0.00022        -0.09283
H        -0.61507         1.00630         0.00749        -0.00593        -0.02691         0.00658         1.56985        -1.06685        -0.24621        -0.09362
H        -0.58984        -1.02041         0.00739         0.01529         0.01755         0.00653         1.01383         2.10638         0.13906        -0.10830
4
step: 4  T=      426.111K  Ek=     0.220316  Ep=     1.287397  E_gap=    13.393436  Err=       0.0000000000000000  time_stamp= 1672955496.2975
 B         0.00385         0.00513        -0.00282         0.00196         0.00261        -0.00175        -2.37546        -1.46379        -0.14874         0.29670
H         1.15787        -0.03792         0.01017        -0.03980        -0.02078         0.00630        -1.00211         0.33789        -0.55649        -0.09225
H        -0.61620         0.99467         0.00997        -0.00066        -0.03127         0.00629         1.42288        -0.94254         0.05633        -0.09260
H        -0.58291        -1.01181         0.01014         0.01946         0.02409         0.00621         0.61590         1.54567        -0.13389        -0.11184
4
step: 5  T=      504.222K  Ek=     0.260703  Ep=     1.238967  E_gap=    13.412281  Err=       0.0000000000000000  time_stamp= 1672955496.6516
 B         0.00453         0.00610        -0.00349         0.00168         0.00211        -0.00157        -0.04650         0.28117         0.30132         0.29912
H         1.14125        -0.04595         0.01231        -0.04439        -0.01785         0.00567        -1.48034         1.02142         0.08969        -0.09207
H        -0.61530         0.98147         0.01257         0.00406        -0.03385         0.00566         1.23741        -0.07313        -0.44425        -0.09183
H        -0.57458        -1.00097         0.01257         0.02226         0.02907         0.00554         0.47626         1.36890        -0.26407        -0.11523
4
step: 6  T=      570.501K  Ek=     0.294972  Ep=     1.200945  E_gap=    13.441319  Err=       0.0000000000000000  time_stamp= 1672955497.0161
 B         0.00519         0.00682        -0.00408         0.00155         0.00154        -0.00158        -1.96795        -0.68003        -0.79423         0.30207
H         1.12235        -0.05245         0.01467        -0.04892        -0.01451         0.00572        -1.01583         0.53857         0.35326        -0.09221
H        -0.61274         0.96773         0.01451         0.00809        -0.03426         0.00575         1.13282         0.38098         0.20235        -0.09149
H        -0.56532        -0.98843         0.01460         0.02425         0.03228         0.00552         0.02695         0.78942        -0.02903        -0.11836
4
step: 7  T=      609.140K  Ek=     0.314950  Ep=     1.182149  E_gap=    13.476668  Err=       0.0000000000000000  time_stamp= 1672955497.3697
 B         0.00577         0.00733        -0.00476         0.00108         0.00105        -0.00152        -2.47396        -0.97393         0.24781         0.30544
H         1.10211        -0.05790         0.01724        -0.04989        -0.01218         0.00553         0.31636         0.40950         0.08831        -0.09274
H        -0.60853         0.95426         0.01698         0.01156        -0.03418         0.00554         0.81968        -0.01387        -0.81578        -0.09149
H        -0.55550        -0.97497         0.01680         0.02677         0.03515         0.00523         0.76388         0.99762        -0.45733        -0.12121
4
step: 8  T=      597.991K  Ek=     0.309185  Ep=     1.186758  E_gap=    13.519702  Err=       0.0000000000000000  time_stamp= 1672955497.7348
 B         0.00606         0.00766        -0.00530         0.00053         0.00050        -0.00128        -1.75321        -0.80422        -1.20363         0.30917
H         1.08243        -0.06249         0.01957        -0.04773        -0.00948         0.00470         0.69720         1.04088         0.10800        -0.09376
H        -0.60325         0.94056         0.01862         0.01414        -0.03314         0.00469         0.46574         0.73594        -0.41091        -0.09165
H        -0.54417        -0.96017         0.01860         0.02794         0.03724         0.00433        -0.36653         0.23948        -0.56771        -0.12377
4
step: 9  T=      512.353K  Ek=     0.264907  Ep=     1.217026  E_gap=    13.566009  Err=       0.0000000000000000  time_stamp= 1672955498.0980
 B         0.00620         0.00773        -0.00578         0.00006         0.00000        -0.00102        -1.01116        -1.88657         0.13839         0.31304
H         1.06392        -0.06555         0.02165        -0.04259        -0.00718         0.00381         1.94603        -0.22264        -0.19590        -0.09503
H        -0.59718         0.92780         0.02030         0.01454        -0.02934         0.00378         0.05049         1.48951        -0.40072        -0.09217
H        -0.53323        -0.94516         0.02001         0.02738         0.03651         0.00338        -0.31831        -0.42841        -0.75256        -0.12584
4
step: 10  T=      390.741K  Ek=     0.202029  Ep=     1.267147  E_gap=    13.610170  Err=       0.0000000000000000  time_stamp= 1672955498.4396
 B         0.00611         0.00766        -0.00611        -0.00041        -0.00007        -0.00090        -1.09024         0.68200        -1.13318         0.31663
H         1.04834        -0.06853         0.02309        -0.03528        -0.00655         0.00344         1.92642         0.54883         0.07182        -0.09648
H        -0.59137         0.91726         0.02158         0.01386        -0.02508         0.00332        -0.42869         0.61470        -0.02490        -0.09266
H        -0.52256        -0.93083         0.02085         0.02584         0.03238         0.00295        -0.37294        -1.84782         0.14528        -0.12750
