4
step: 1  T=      400.000K  Ek=     0.206816  Ep=     2.166748  E_gap=    12.767467  Err=       0.0000000000000000  time_stamp= 1672955491.1461
 B        -0.01406         0.00164         0.00017         0.00218         0.00544         0.00058         2.06516        -0.12561        -0.01412         0.28786
H         1.38406        -0.01223        -0.00056        -0.01624        -0.04057        -0.00185        -4.56711         0.09144         0.00488        -0.10325
H        -0.62336         1.03335        -0.00065        -0.02601         0.00652        -0.00216         1.28940        -1.82682         0.00463        -0.08971
H        -0.60986        -1.03872        -0.00065         0.01882        -0.02433        -0.00216         1.21255         1.86098         0.00461        -0.09490
4
step: 2  T=      400.000K  Ek=     0.206816  Ep=     2.142942  E_gap=    12.791091  Err=       0.0000000000000000  time_stamp= 1672955491.5240
 B        -0.01304         0.00381         0.00040         0.00274         0.00508         0.00054         1.92691        -0.29215        -0.03295         0.28721
H         1.37407        -0.02839        -0.00130        -0.03179        -0.03786        -0.00172        -4.48437         0.21287         0.01135        -0.10261
H        -0.63278         1.03456        -0.00151        -0.01981        -0.00057        -0.00202         1.36960        -1.89100         0.01083        -0.08618
H        -0.60140        -1.04702        -0.00151         0.02217        -0.01609        -0.00202         1.18785         1.97028         0.01077        -0.09843
4
step: 3  T=      400.000K  Ek=     0.206816  Ep=     2.079058  E_gap=    12.831080  Err=       0.0000000000000000  time_stamp= 1672955491.8916
 B        -0.01181         0.00582         0.00062         0.00298         0.00433         0.00046         1.79800        -0.44758        -0.05057         0.28690
H         1.35792        -0.04337        -0.00198        -0.04257        -0.03220        -0.00146        -4.34347         0.32724         0.01739        -0.10187
H        -0.63965         1.03288        -0.00231        -0.01267        -0.00684        -0.00172         1.41428        -1.89970         0.01666        -0.08301
H        -0.59162        -1.05195        -0.00231         0.02327        -0.00739        -0.00172         1.13119         2.02004         0.01651        -0.10202
4
step: 4  T=      400.000K  Ek=     0.206816  Ep=     1.985463  E_gap=    12.880930  Err=       0.0000000000000000  time_stamp= 1672955492.2531
 B        -0.01049         0.00752         0.00080         0.00299         0.00344         0.00036         1.67784        -0.57902        -0.06549         0.28699
H         1.33756        -0.05600        -0.00255        -0.04885        -0.02554        -0.00115        -4.15032         0.42577         0.02253        -0.10116
H        -0.64364         1.02869        -0.00299        -0.00601        -0.01166        -0.00137         1.42233        -1.85766         0.02161        -0.08042
H        -0.58145        -1.05336        -0.00299         0.02279         0.00027        -0.00137         1.05015         2.01092         0.02135        -0.10541
4
step: 5  T=      400.000K  Ek=     0.206816  Ep=     1.874787  E_gap=    12.935666  Err=       0.0000000000000000  time_stamp= 1672955492.6221
 B        -0.00917         0.00886         0.00094         0.00288         0.00260         0.00027         1.56223        -0.68138        -0.07714         0.28747
H         1.31484        -0.06589        -0.00299        -0.05193        -0.01919        -0.00085        -3.91173         0.50468         0.02657        -0.10053
H        -0.64495         1.02261        -0.00352        -0.00049        -0.01503        -0.00103         1.39733        -1.77371         0.02547        -0.07847
H        -0.57153        -1.05171        -0.00352         0.02151         0.00635        -0.00103         0.95217         1.95041         0.02509        -0.10848
4
step: 6  T=      400.000K  Ek=     0.206816  Ep=     1.757918  E_gap=    12.992480  Err=       0.0000000000000000  time_stamp= 1672955492.9925
 B        -0.00791         0.00985         0.00104         0.00274         0.00187         0.00019         1.44583        -0.75512        -0.08558         0.28834
H         1.29107        -0.07318        -0.00331        -0.05311        -0.01372        -0.00060        -3.63295         0.56392         0.02952        -0.10002
H        -0.64407         1.01523        -0.00391         0.00381        -0.01728        -0.00074         1.34445        -1.65654         0.02827        -0.07715
H        -0.56220        -1.04768        -0.00392         0.01996         0.01090        -0.00075         0.84267         1.84774         0.02779        -0.11117
4
step: 7  T=      400.000K  Ek=     0.206816  Ep=     1.642859  E_gap=    13.050021  Err=       0.0000000000000000  time_stamp= 1672955493.3632
 B        -0.00671         0.01054         0.00111         0.00259         0.00128         0.00013         1.32336        -0.80328        -0.09118         0.28956
H         1.26705        -0.07824        -0.00353        -0.05330        -0.00922        -0.00038        -3.31704         0.60519         0.03149        -0.09966
H        -0.64152         1.00705        -0.00419         0.00707        -0.01874        -0.00051         1.26864        -1.51311         0.03014        -0.07639
H        -0.55357        -1.04190        -0.00419         0.01843         0.01421        -0.00051         0.72504         1.71120         0.02956        -0.11352
4
step: 8  T=      400.000K  Ek=     0.206816  Ep=     1.535086  E_gap=    13.107644  Err=       0.0000000000000000  time_stamp= 1672955493.7296
 B        -0.00558         0.01100         0.00116         0.00247         0.00080         0.00008         1.19004        -0.82961        -0.09437         0.29111
H         1.24318        -0.08146        -0.00366        -0.05304        -0.00556        -0.00021        -2.96521         0.63077         0.03259        -0.09945
H        -0.63772         0.99840        -0.00437         0.00954        -0.01966        -0.00032         1.17393        -1.34855         0.03122        -0.07611
H        -0.54564        -1.03491        -0.00438         0.01702         0.01660        -0.00032         0.60124         1.54740         0.03056        -0.11555
4
step: 9  T=      400.000K  Ek=     0.206816  Ep=     1.438283  E_gap=    13.164992  Err=       0.0000000000000000  time_stamp= 1672955494.0958
 B        -0.00450         0.01126         0.00118         0.00237         0.00042         0.00004         1.04158        -0.83764        -0.09554         0.29296
H         1.21970        -0.08320        -0.00372        -0.05260        -0.00258        -0.00007        -2.57742         0.64277         0.03296        -0.09939
H        -0.63301         0.98950        -0.00447         0.01142        -0.02023        -0.00016         1.06343        -1.16648         0.03165        -0.07624
H        -0.53837        -1.02708        -0.00448         0.01576         0.01832        -0.00017         0.47241         1.36135         0.03093        -0.11733
4
step: 10  T=      400.000K  Ek=     0.206816  Ep=     1.354962  E_gap=    13.221837  Err=       0.0000000000000000  time_stamp= 1672955494.4600
 B        -0.00348         0.01137         0.00119         0.00229         0.00010         0.00000         0.87425        -0.83040        -0.09504         0.29508
H         1.19668        -0.08374        -0.00372        -0.05212        -0.00010         0.00005        -2.15294         0.64302         0.03269        -0.09946
H        -0.62763         0.98051        -0.00451         0.01290        -0.02056        -0.00003         0.93942        -0.96950         0.03156        -0.07672
H        -0.53171        -1.01871        -0.00453         0.01464         0.01957        -0.00004         0.33928         1.15688         0.03079        -0.11890
