4
step: 1  T=      258.654K  Ek=     0.133735  Ep=     1.415662  E_gap=    13.427306  Err=       0.0000000000000000  time_stamp= 1669604860.4488
 B        -0.00123         0.00076        -0.00081        -0.00301         0.00185        -0.00202         0.38911        -0.22750         0.06672         0.29275
H         1.20690         0.00296         0.00291         0.01279         0.00735         0.00723        -2.32839        -0.02616        -0.02282        -0.09712
H        -0.59190         1.01607         0.00291         0.02194        -0.03759         0.00723         0.88108        -1.44927        -0.02165        -0.09782
H        -0.60180        -1.02715         0.00291        -0.00247         0.01038         0.00723         1.05821         1.70293        -0.02225        -0.09781
4
step: 2  T=      311.057K  Ek=     0.160829  Ep=     1.388264  E_gap=    13.424218  Err=       0.0000000000000000  time_stamp= 1669604860.8070
 B        -0.00241         0.00148        -0.00162        -0.00282         0.00173        -0.00199         0.68908        -0.47522         0.13157         0.29402
H         1.21023         0.00588         0.00579         0.00375         0.00720         0.00710        -2.39476        -0.05212        -0.04588        -0.09806
H        -0.58244         0.99993         0.00579         0.02491        -0.04243         0.00711         0.67040        -1.07767        -0.04154        -0.09802
H        -0.60197        -1.02169         0.00579         0.00154         0.01672         0.00711         1.03527         1.60502        -0.04415        -0.09794
4
step: 3  T=      374.586K  Ek=     0.193676  Ep=     1.355031  E_gap=    13.434253  Err=       0.0000000000000000  time_stamp= 1669604861.1819
 B        -0.00348         0.00214        -0.00240        -0.00252         0.00151        -0.00193         0.99565        -0.74257         0.19284         0.29591
H         1.20989         0.00872         0.00859        -0.00542         0.00695         0.00688        -2.39160        -0.07778        -0.06868        -0.09915
H        -0.57197         0.98213         0.00860         0.02700        -0.04570         0.00692         0.41669        -0.63079        -0.05890        -0.09849
H        -0.60056        -1.01378         0.00859         0.00540         0.02257         0.00690         0.97926         1.45114        -0.06526        -0.09826
4
step: 4  T=      438.225K  Ek=     0.226580  Ep=     1.321721  E_gap=    13.457429  Err=       0.0000000000000000  time_stamp= 1669604861.5614
 B        -0.00442         0.00269        -0.00316        -0.00210         0.00119        -0.00185         1.30627        -1.02364         0.24880         0.29837
H         1.20590         0.01144         0.01129        -0.01444         0.00660         0.00657        -2.31840        -0.10289        -0.09077        -0.10035
H        -0.56085         0.96337         0.01132         0.02803        -0.04712         0.00667         0.12293        -0.11377        -0.07294        -0.09926
H        -0.59765        -1.00364         0.01130         0.00898         0.02772         0.00661         0.88920         1.24029        -0.08509        -0.09876
4
step: 5  T=      490.663K  Ek=     0.253693  Ep=     1.294263  E_gap=    13.493230  Err=       0.0000000000000000  time_stamp= 1669604861.9330
 B        -0.00517         0.00309        -0.00388        -0.00158         0.00078        -0.00175         1.61210        -1.30484         0.29785         0.30133
H         1.19835         0.01400         0.01385        -0.02304         0.00616         0.00619        -2.17325        -0.12709        -0.11166        -0.10159
H        -0.54954         0.94444         0.01393         0.02788        -0.04646         0.00637        -0.20310         0.45966        -0.08307        -0.10035
H        -0.59338        -0.99160         0.01388         0.01214         0.03196         0.00625         0.76425         0.97227        -0.10312        -0.09940
4
step: 6  T=      522.616K  Ek=     0.270213  Ep=     1.277533  E_gap=    13.540550  Err=       0.0000000000000000  time_stamp= 1669604862.3037
 B        -0.00569         0.00331        -0.00456        -0.00096         0.00027        -0.00164         1.89636        -1.56351         0.33870         0.30470
H         1.18747         0.01637         0.01624        -0.03094         0.00563         0.00572        -1.95323        -0.14979        -0.13081        -0.10281
H        -0.53855         0.92621         0.01642         0.02644        -0.04354         0.00604        -0.54741         1.06447        -0.08907        -0.10174
H        -0.58794        -0.97807         0.01630         0.01476         0.03506         0.00582         0.60428         0.64883        -0.11881        -0.10015
4
step: 7  T=      529.007K  Ek=     0.273518  Ep=     1.274206  E_gap=    13.597641  Err=       0.0000000000000000  time_stamp= 1669604862.6778
 B        -0.00593         0.00330        -0.00520        -0.00024        -0.00033        -0.00151         2.13377        -1.76829         0.37066         0.30832
H         1.17360         0.01851         0.01843        -0.03784         0.00502         0.00519        -1.65522        -0.17011        -0.14762        -0.10396
H        -0.52839         0.90960         0.01877         0.02369        -0.03832         0.00570        -0.88917         1.66329        -0.09135        -0.10341
H        -0.58157        -0.96355         0.01854         0.01671         0.03683         0.00534         0.41062         0.27511        -0.13169        -0.10095
4
step: 8  T=      510.295K  Ek=     0.263843  Ep=     1.284040  E_gap=    13.662043  Err=       0.0000000000000000  time_stamp= 1669604863.0557
 B        -0.00588         0.00305        -0.00578         0.00055        -0.00098        -0.00138         2.29199        -1.88248         0.39392         0.31199
H         1.15719         0.02039         0.02039        -0.04346         0.00434         0.00460        -1.27719        -0.18685        -0.16144        -0.10495
H        -0.51960         0.89555         0.02097         0.01968        -0.03091         0.00535        -1.20182         2.20823        -0.09109        -0.10530
H        -0.57457        -0.94861         0.02057         0.01785         0.03709         0.00482         0.18702        -0.13890        -0.14139        -0.10174
4
step: 9  T=      472.262K  Ek=     0.244178  Ep=     1.303982  E_gap=    13.730404  Err=       0.0000000000000000  time_stamp= 1669604863.4257
 B        -0.00549         0.00252        -0.00630         0.00138        -0.00165        -0.00123         2.33559        -1.87089         0.40964         0.31552
H         1.13883         0.02198         0.02211        -0.04747         0.00360         0.00396        -0.81992        -0.19855        -0.17165        -0.10572
H        -0.51264         0.88488         0.02304         0.01460        -0.02161         0.00500        -1.45622         2.64665        -0.09024        -0.10734
H        -0.56729        -0.93388         0.02239         0.01809         0.03572         0.00427        -0.05944        -0.57721        -0.14775        -0.10247
4
step: 10  T=      424.145K  Ek=     0.219300  Ep=     1.329156  E_gap=    13.797909  Err=       0.0000000000000000  time_stamp= 1669604863.7989
 B        -0.00477         0.00173        -0.00676         0.00219        -0.00229        -0.00109         2.23256        -1.70915         0.41976         0.31871
H         1.11921         0.02327         0.02356        -0.04960         0.00283         0.00329        -0.28927        -0.20369        -0.17771        -0.10621
H        -0.50792         0.87826         0.02497         0.00870        -0.01093         0.00465        -1.62560         2.93027        -0.09109        -0.10945
H        -0.56010        -0.92003         0.02399         0.01737         0.03267         0.00369        -0.31768        -1.01743        -0.15096        -0.10305
