4
step: 1  T=      488.195K  Ek=     0.252416  Ep=     2.128525  E_gap=    12.708488  Err=       0.0000000000000000  time_stamp= 1669604864.6707
 B        -0.01749        -0.00058        -0.00200        -0.00685        -0.00143        -0.00498         2.51347         0.05665         0.16068         0.29035
H         1.38893         0.00372         0.00644        -0.00006         0.00924         0.01600        -4.60414        -0.02788        -0.05650        -0.10906
H        -0.59886         1.02806         0.00752         0.04126        -0.00792         0.01869         1.03939        -1.60225        -0.05213        -0.09145
H        -0.60248        -1.02559         0.00752         0.03224         0.01404         0.01870         1.05128         1.57348        -0.05205        -0.08983
4
step: 2  T=      591.047K  Ek=     0.305595  Ep=     2.075347  E_gap=    12.669637  Err=       0.0000000000000000  time_stamp= 1669604865.0428
 B        -0.02005        -0.00115        -0.00398        -0.00589        -0.00140        -0.00490         2.85821         0.11590         0.31620         0.29239
H         1.38538         0.00739         0.01280        -0.01765         0.00908         0.01569        -4.57366        -0.05588        -0.11298        -0.11448
H        -0.58157         1.02366         0.01496         0.04490        -0.01371         0.01841         0.84708        -1.41532        -0.10180        -0.09054
H        -0.58878        -1.01877         0.01496         0.03594         0.01966         0.01841         0.86838         1.35530        -0.10142        -0.08737
4
step: 3  T=      749.681K  Ek=     0.387615  Ep=     1.993326  E_gap=    12.655093  Err=       0.0000000000000000  time_stamp= 1669604865.4132
 B        -0.02220        -0.00170        -0.00592        -0.00481        -0.00135        -0.00476         3.20889         0.17762         0.46395         0.29473
H         1.37482         0.01098         0.01899        -0.03502         0.00882         0.01516        -4.48619        -0.08405        -0.16921        -0.11976
H        -0.56296         1.01710         0.02224         0.04775        -0.01867         0.01795         0.62467        -1.16824        -0.14788        -0.08982
H        -0.57373        -1.00987         0.02224         0.03888         0.02433         0.01795         0.65262         1.07466        -0.14686        -0.08515
4
step: 4  T=      948.072K  Ek=     0.490191  Ep=     1.890750  E_gap=    12.666003  Err=       0.0000000000000000  time_stamp= 1669604865.7862
 B        -0.02390        -0.00223        -0.00779        -0.00361        -0.00128        -0.00457         3.55472         0.24109         0.60088         0.29734
H         1.35737         0.01445         0.02492        -0.05194         0.00845         0.01441        -4.33373        -0.11235        -0.22483        -0.12479
H        -0.54338         1.00874         0.02931         0.04969        -0.02256         0.01731         0.37359        -0.86083        -0.18908        -0.08933
H        -0.55768        -0.99932         0.02931         0.04094         0.02780         0.01732         0.40543         0.73209        -0.18698        -0.08323
4
step: 5  T=     1167.459K  Ek=     0.603623  Ep=     1.777318  E_gap=    12.702193  Err=       0.0000000000000000  time_stamp= 1669604866.1599
 B        -0.02509        -0.00272        -0.00958        -0.00228        -0.00118        -0.00434         3.87556         0.30471         0.72371         0.30020
H         1.33328         0.01774         0.03051        -0.06813         0.00797         0.01345        -4.10215        -0.14065        -0.27914        -0.12945
H        -0.52321         0.99905         0.03609         0.05062        -0.02518         0.01653         0.09656        -0.49619        -0.22414        -0.08912
H        -0.54100        -0.98764         0.03610         0.04198         0.02986         0.01655         0.13004         0.33212        -0.22043        -0.08163
4
step: 6  T=     1387.435K  Ek=     0.717359  Ep=     1.663582  E_gap=    12.762076  Err=       0.0000000000000000  time_stamp= 1669604866.5363
 B        -0.02572        -0.00317        -0.01126        -0.00085        -0.00106        -0.00406         4.13994         0.36564         0.82920         0.30324
H         1.30289         0.02082         0.03568        -0.08324         0.00738         0.01229        -3.77033        -0.16856        -0.33090        -0.13361
H        -0.50289         0.98860         0.04253         0.05045        -0.02630         0.01563        -0.20184        -0.08241        -0.25208        -0.08924
H        -0.52410        -0.97544         0.04255         0.04193         0.03029         0.01567        -0.16777        -0.11467        -0.24623        -0.08039
4
step: 7  T=     1586.896K  Ek=     0.820489  Ep=     1.560453  E_gap=    12.842525  Err=       0.0000000000000000  time_stamp= 1669604866.9105
 B        -0.02577        -0.00357        -0.01283         0.00066        -0.00092        -0.00375         4.30316         0.41964         0.91457         0.30641
H         1.26670         0.02365         0.04034        -0.09684         0.00669         0.01094        -3.30918        -0.19536        -0.37804        -0.13719
H        -0.48287         0.97802         0.04859         0.04910        -0.02577         0.01463        -0.51484         0.36588        -0.27243        -0.08969
H        -0.50746        -0.96341         0.04863         0.04072         0.02895         0.01470        -0.47915        -0.59016        -0.26410        -0.07952
4
step: 8  T=     1744.597K  Ek=     0.902026  Ep=     1.478915  E_gap=    12.938693  Err=       0.0000000000000000  time_stamp= 1669604867.2843
 B        -0.02520        -0.00391        -0.01426         0.00219        -0.00076        -0.00342         4.30654         0.46112         0.97782         0.30964
H         1.22543         0.02618         0.04443        -0.10836         0.00590         0.00942        -2.68118        -0.21976        -0.41744        -0.14014
H        -0.46362         0.96799         0.05423         0.04654        -0.02350         0.01357        -0.83323         0.82664        -0.28560        -0.09049
H        -0.49154        -0.95228         0.05431         0.03830         0.02579         0.01367        -0.79213        -1.06800        -0.27478        -0.07901
4
step: 9  T=     1839.201K  Ek=     0.950941  Ep=     1.430001  E_gap=    13.043932  Err=       0.0000000000000000  time_stamp= 1669604867.6574
 B        -0.02401        -0.00418        -0.01556         0.00369        -0.00060        -0.00306         4.07938         0.48363         1.01790         0.31290
H         1.18003         0.02837         0.04788        -0.11708         0.00502         0.00777        -1.84225        -0.23964        -0.44459        -0.14246
H        -0.44564         0.95923         0.05944         0.04277        -0.01949         0.01247        -1.14525         1.27071        -0.29304        -0.09159
H        -0.47682        -0.94278         0.05956         0.03471         0.02086         0.01262        -1.09189        -1.51471        -0.28027        -0.07885
4
step: 10  T=     1849.441K  Ek=     0.956235  Ep=     1.424706  E_gap=    13.150018  Err=       0.0000000000000000  time_stamp= 1669604868.0316
 B        -0.02225        -0.00438        -0.01671         0.00506        -0.00042        -0.00270         3.54681         0.48090         1.03460         0.31618
H         1.13179         0.03019         0.05065        -0.12209         0.00408         0.00606        -0.74855        -0.25189        -0.45365        -0.14420
H        -0.42941         0.95240         0.06421         0.03785        -0.01388         0.01134        -1.43660         1.66375        -0.29724        -0.09297
H        -0.46378        -0.93560         0.06440         0.03002         0.01434         0.01154        -1.36166        -1.89276        -0.28370        -0.07901
