4
step: 1  T=      128.160K  Ek=     0.066264  Ep=     1.420716  E_gap=    13.420134  Err=       0.0000000000000000  time_stamp= 1669605884.9932
 B        -0.00133         0.00082         0.00074        -0.00328         0.00202         0.00183         0.29284        -0.17625        -0.06210         0.29184
H         1.20189        -0.00059        -0.00264         0.00044        -0.00148        -0.00655        -2.23697         0.00268         0.02093        -0.09627
H        -0.59175         1.02458        -0.00264         0.02240        -0.01659        -0.00655         0.92341        -1.59487         0.02046        -0.09778
H        -0.59585        -1.03281        -0.00264         0.01233        -0.00364        -0.00655         1.02073         1.76844         0.02071        -0.09778
4
step: 2  T=      181.456K  Ek=     0.093820  Ep=     1.392797  E_gap=    13.405399  Err=       0.0000000000000000  time_stamp= 1669605885.2900
 B        -0.00262         0.00162         0.00147        -0.00314         0.00193         0.00180         0.47882        -0.35231        -0.12067         0.29284
H         1.20035        -0.00118        -0.00524        -0.00808        -0.00146        -0.00643        -2.21253         0.00312         0.04103        -0.09845
H        -0.58208         1.01672        -0.00524         0.02564        -0.02230        -0.00644         0.76818        -1.38495         0.03924        -0.09661
H        -0.59014        -1.03291        -0.00524         0.01613         0.00307        -0.00643         0.96553         1.73414         0.04040        -0.09777
4
step: 3  T=      258.058K  Ek=     0.133426  Ep=     1.352702  E_gap=    13.400017  Err=       0.0000000000000000  time_stamp= 1669605885.6046
 B        -0.00385         0.00237         0.00218        -0.00294         0.00177         0.00175         0.65412        -0.53085        -0.17546         0.29515
H         1.19543        -0.00176        -0.00778        -0.01637        -0.00146        -0.00624        -2.12113         0.00175         0.06030        -0.10285
H        -0.57124         1.00674        -0.00778         0.02822        -0.02709        -0.00625         0.58335        -1.11537         0.05608        -0.09451
H        -0.58294        -1.03035        -0.00778         0.01967         0.00954        -0.00624         0.88366         1.64447         0.05908        -0.09779
4
step: 4  T=      347.283K  Ek=     0.179559  Ep=     1.306117  E_gap=    13.408104  Err=       0.0000000000000000  time_stamp= 1669605885.9184
 B        -0.00497         0.00304         0.00286        -0.00267         0.00155         0.00167         0.82766        -0.71674        -0.22743         0.29792
H         1.18726        -0.00234        -0.01023        -0.02419        -0.00145        -0.00597        -1.96441         0.00036         0.07907        -0.10765
H        -0.55950         0.99506        -0.01024         0.03004        -0.03072        -0.00601         0.36567        -0.78388         0.07120        -0.09251
H        -0.57440        -1.02528        -0.01023         0.02284         0.01556        -0.00598         0.77108         1.50027         0.07716        -0.09777
4
step: 5  T=      435.857K  Ek=     0.225355  Ep=     1.259878  E_gap=    13.430914  Err=       0.0000000000000000  time_stamp= 1669605886.2314
 B        -0.00599         0.00361         0.00352        -0.00235         0.00126         0.00158         1.00186        -0.90767        -0.27588         0.29995
H         1.17607        -0.00292        -0.01256        -0.03129        -0.00145        -0.00563        -1.73928         0.00009         0.09705        -0.11074
H        -0.54721         0.98217        -0.01259         0.03096        -0.03297        -0.00571         0.11404        -0.39208         0.08438        -0.09155
H        -0.56467        -1.01791        -0.01257         0.02551         0.02092        -0.00565         0.62338         1.29966         0.09445        -0.09766
4
step: 6  T=      509.491K  Ek=     0.263427  Ep=     1.221389  E_gap=    13.464673  Err=       0.0000000000000000  time_stamp= 1669605886.5451
 B        -0.00685         0.00404         0.00413        -0.00196         0.00090         0.00148         1.16490        -1.08978        -0.31774         0.30122
H         1.16223        -0.00350        -0.01474        -0.03737        -0.00145        -0.00523        -1.43974         0.00041         0.11313        -0.11164
H        -0.53473         0.96868        -0.01481         0.03086        -0.03363        -0.00537        -0.16534         0.04964         0.09475        -0.09189
H        -0.55399        -1.00854        -0.01476         0.02755         0.02540        -0.00526         0.44018         1.03974         0.10986        -0.09769
4
step: 7  T=      555.122K  Ek=     0.287020  Ep=     1.197414  E_gap=    13.503764  Err=       0.0000000000000000  time_stamp= 1669605886.8470
 B        -0.00756         0.00433         0.00470        -0.00152         0.00049         0.00136         1.29462        -1.24171        -0.34984         0.30324
H         1.14618        -0.00408        -0.01674        -0.04216        -0.00145        -0.00477        -1.06257        -0.00002         0.12614        -0.11193
H        -0.52252         0.95526        -0.01689         0.02967        -0.03254        -0.00499        -0.45836         0.52136         0.10151        -0.09309
H        -0.54263        -0.99759        -0.01678         0.02882         0.02877        -0.00482         0.22631         0.72038         0.12219        -0.09822
4
step: 8  T=      563.401K  Ek=     0.291301  Ep=     1.192892  E_gap=    13.545621  Err=       0.0000000000000000  time_stamp= 1669605887.1632
 B        -0.00807         0.00443         0.00522        -0.00105         0.00003         0.00123         1.37120        -1.34297        -0.37189         0.30739
H         1.12850        -0.00466        -0.01855        -0.04537        -0.00145        -0.00427        -0.61209        -0.00148         0.13573        -0.11366
H        -0.51100         0.94265        -0.01881         0.02736        -0.02963        -0.00460        -0.74770         0.99710         0.10505        -0.09441
H        -0.53093        -0.98553        -0.01861         0.02924         0.03081        -0.00433        -0.01141         0.34736         0.13111        -0.09932
4
step: 9  T=      530.836K  Ek=     0.274463  Ep=     1.209767  E_gap=    13.590517  Err=       0.0000000000000000  time_stamp= 1669605887.4747
 B        -0.00839         0.00435         0.00568        -0.00055        -0.00046         0.00110         1.38336        -1.37687        -0.38622         0.31326
H         1.10988        -0.00525        -0.02016        -0.04673        -0.00146        -0.00374        -0.09990        -0.00264         0.14226        -0.11745
H        -0.50063         0.93156        -0.02057         0.02398        -0.02495        -0.00419        -1.01653         1.44698         0.10680        -0.09524
H        -0.51924        -0.97294        -0.02024         0.02870         0.03135        -0.00382        -0.26693        -0.06747         0.13717        -0.10056
4
step: 10  T=      461.112K  Ek=     0.238413  Ep=     1.246192  E_gap=    13.637286  Err=       0.0000000000000000  time_stamp= 1669605887.7830
 B        -0.00852         0.00406         0.00610        -0.00007        -0.00094         0.00096         1.32509        -1.32811        -0.39496         0.31870
H         1.09111        -0.00583        -0.02154        -0.04605        -0.00147        -0.00319         0.45741        -0.00167         0.14592        -0.12205
H        -0.49182         0.92269        -0.02216         0.01964        -0.01866        -0.00378        -1.24840         1.83670         0.10820        -0.09530
H        -0.50797        -0.96045        -0.02167         0.02717         0.03025        -0.00329        -0.53411        -0.50693         0.14084        -0.10134
